Generated from problems/practice/something.cpp
Input file: problems/practice/input.txt
Output file: outputs/practice/something.txt
Status: compile_failed
