Generated from /Users/aakibsiddiki/Desktop/DSA_C++/C++/problems/pattern-printing/main.cpp
Input file: /Users/aakibsiddiki/Desktop/DSA_C++/C++/problems/pattern-printing/input.txt
Output file: /Users/aakibsiddiki/Desktop/DSA_C++/C++/outputs/pattern-printing.txt
