Generated from problems/pattern-printing/patternPrinting.cpp
Input file: problems/pattern-printing/input.txt
Output file: outputs/pattern-printing.txt
