Generated from /home/runner/work/DSA-CPP/DSA-CPP/problems/pattern-printing/main.cpp
Input file: /home/runner/work/DSA-CPP/DSA-CPP/problems/pattern-printing/input.txt
Output file: /home/runner/work/DSA-CPP/DSA-CPP/outputs/pattern-printing.txt
